
 Fire Dynamics Simulator

 Current Date     : July  8, 2022  14:17:00
 Revision         : FDS6.7.8-0-gfbf3e11ee-release
 Revision Date    : Tue May 24 18:07:45 2022 -0400
 Compiler         : ifort version 2021.5.0
 Compilation Date : May 25, 2022 06:01:34

 MPI Enabled;    Number of MPI Processes:       1
 OpenMP Disabled

 MPI version: 3.1
 MPI library version: Intel(R) MPI Library 2021.4 for Linux* OS


 Job TITLE        : 
 Job ID string    : hrrpua_500


 Grid Dimensions, Mesh     1

   Cells in the X Direction            40
   Cells in the Y Direction            40
   Cells in the Z Direction            40
   Number of Grid Cells             64000


 Physical Dimensions, Mesh     1

   Length (m)                       4.000
   Width  (m)                       4.000
   Height (m)                       4.000
   Initial Time Step (s)            0.079

 Total Number of Grid Cells         64000


 Maximum Cell Aspect Ratio          1.000
 CFL Velocity Norm                      2


 Miscellaneous Parameters

   Simulation Start Time (s)          0.0
   Simulation End Time (s)           30.0
   Background Pressure (Pa)     101325.00
   Ambient Temperature (C)          20.00

   3D Cartesian
   VLES Calculation
   Eddy Viscosity: Deardorff Model (C_DEARDORFF = 0.10)
   Surface INERT Eddy Viscosity: WALE Model (C_WALE = 0.60)
   Surface BURNER Eddy Viscosity: WALE Model (C_WALE = 0.60)
   Turbulent Prandtl Number:         0.50
   Turbulent Schmidt Number:         0.50


 Background Stratification

      Z (m)     P_0 (Pa)    TMP_0 (C)
   ------------------------------------
        3.95    101278.70     20.00
        3.85    101279.87     20.00
        3.75    101281.04     20.00
        3.65    101282.21     20.00
        3.55    101283.38     20.00
        3.45    101284.56     20.00
        3.35    101285.73     20.00
        3.25    101286.90     20.00
        3.15    101288.07     20.00
        3.05    101289.24     20.00
        2.95    101290.41     20.00
        2.85    101291.59     20.00
        2.75    101292.76     20.00
        2.65    101293.93     20.00
        2.55    101295.10     20.00
        2.45    101296.27     20.00
        2.35    101297.44     20.00
        2.25    101298.62     20.00
        2.15    101299.79     20.00
        2.05    101300.96     20.00
        1.95    101302.13     20.00
        1.85    101303.30     20.00
        1.75    101304.48     20.00
        1.65    101305.65     20.00
        1.55    101306.82     20.00
        1.45    101307.99     20.00
        1.35    101309.16     20.00
        1.25    101310.34     20.00
        1.15    101311.51     20.00
        1.05    101312.68     20.00
        0.95    101313.85     20.00
        0.85    101315.02     20.00
        0.75    101316.20     20.00
        0.65    101317.37     20.00
        0.55    101318.54     20.00
        0.45    101319.71     20.00
        0.35    101320.88     20.00
        0.25    101322.06     20.00
        0.15    101323.23     20.00
        0.05    101324.40     20.00


 Mass Fraction Transformation Matrix to Convert Species Mixtures (Columns) to Primitive Species (Rows)

                         AIR       PROPANE   PRODUCTS
   PROPANE               0.000000  1.000000  0.000000
   NITROGEN              0.762470  0.000000  0.716833
   OXYGEN                0.230997  0.000000  0.000000
   CARBON DIOXIDE        0.000591  0.000000  0.179768
   WATER VAPOR           0.005941  0.000000  0.103399
   CARBON MONOXIDE       0.000000  0.000000  0.000000
   SOOT                  0.000000  0.000000  0.000000
   HYDROGEN              0.000000  0.000000  0.000000
   HYDROGEN CYANIDE      0.000000  0.000000  0.000000


 Primitive Species Information

   PROPANE
   Gas Species
   Molecular Weight (g/mol)            44.09562
   Ambient Density (kg/m^3)            1.833
   Enthalpy of Formation (J/kg)       -2.37E+06

   NITROGEN
   Gas Species
   Molecular Weight (g/mol)            28.01340
   Ambient Density (kg/m^3)            1.165
   Enthalpy of Formation (J/kg)        0.00E+00

   OXYGEN
   Gas Species
   Molecular Weight (g/mol)            31.99880
   Ambient Density (kg/m^3)            1.330
   Enthalpy of Formation (J/kg)        0.00E+00

   CARBON DIOXIDE
   Gas Species
   Molecular Weight (g/mol)            44.00950
   Ambient Density (kg/m^3)            1.830
   Enthalpy of Formation (J/kg)       -8.94E+06

   WATER VAPOR
   Gas Species
   Molecular Weight (g/mol)            18.01528
   Ambient Density (kg/m^3)            0.749
   Enthalpy of Formation (J/kg)       -1.34E+07

   CARBON MONOXIDE
   Gas Species
   Molecular Weight (g/mol)            28.01010
   Ambient Density (kg/m^3)            1.164
   Enthalpy of Formation (J/kg)       -3.95E+06

   SOOT
   Gas Species
   Molecular Weight (g/mol)            10.91042
   Ambient Density (kg/m^3)            0.454
   Enthalpy of Formation (J/kg)        0.00E+00

   HYDROGEN
   Gas Species
   Molecular Weight (g/mol)             2.01588
   Ambient Density (kg/m^3)            0.084
   Enthalpy of Formation (J/kg)        0.00E+00

   HYDROGEN CYANIDE
   Gas Species
   Molecular Weight (g/mol)            27.02534
   Ambient Density (kg/m^3)            1.123
   Enthalpy of Formation (J/kg)        4.92E+06


 Tracked (Lumped) Species Information

   AIR
   Molecular Weight (g/mol)            28.75198
   Ambient Density (kg/m^3)            1.195
   Initial Mass Fraction               1.000
   Enthalpy of Formation (J/kg)     -8.50E+04

   Sub Species                    Mass Fraction     Mole Fraction
   NITROGEN                       7.624699E-01      7.825727E-01
   OXYGEN                         2.309974E-01      2.075588E-01
   CARBON DIOXIDE                 5.914650E-04      3.864118E-04
   WATER VAPOR                    5.941209E-03      9.482037E-03
 
     Viscosity (kg/m/s) Ambient,  293 K:  1.80E-05
                                  500 K:  2.61E-05
                                 1000 K:  4.13E-05
                                 1500 K:  5.37E-05
   Therm. Cond. (W/m/K) Ambient,  293 K:  2.56E-02
                                  500 K:  3.81E-02
                                 1000 K:  6.69E-02
                                 1500 K:  9.25E-02
        Enthalpy (J/kg) Ambient,  293 K: -9.01E+04
                                  500 K:  1.22E+05
                                 1000 K:  6.72E+05
                                 1500 K:  1.27E+06
    Spec. Heat (J/kg/K) Ambient,  293 K:  1.02E+03
                                  500 K:  1.04E+03
                                 1000 K:  1.16E+03
                                 1500 K:  1.23E+03
   Diff. Coeff. (m^2/s) Ambient,  293 K:  1.99E-05
                                  500 K:  4.96E-05
                                 1000 K:  1.58E-04
                                 1500 K:  3.09E-04

   PROPANE
   Molecular Weight (g/mol)            44.09562
   Ambient Density (kg/m^3)            1.833
   Initial Mass Fraction               0.000
   Enthalpy of Formation (J/kg)     -2.37E+06

   Sub Species                    Mass Fraction     Mole Fraction
   PROPANE                        1.000000E+00      1.000000E+00
 
     Viscosity (kg/m/s) Ambient,  293 K:  8.08E-06
                                  500 K:  1.31E-05
                                 1000 K:  2.23E-05
                                 1500 K:  2.96E-05
   Therm. Cond. (W/m/K) Ambient,  293 K:  1.66E-02
                                  500 K:  4.18E-02
                                 1000 K:  1.11E-01
                                 1500 K:  1.72E-01
        Enthalpy (J/kg) Ambient,  293 K: -2.38E+06
                                  500 K: -1.95E+06
                                 1000 K: -2.77E+05
                                 1500 K:  1.90E+06
    Spec. Heat (J/kg/K) Ambient,  293 K:  1.65E+03
                                  500 K:  2.55E+03
                                 1000 K:  3.96E+03
                                 1500 K:  4.67E+03
   Diff. Coeff. (m^2/s) Ambient,  293 K:  1.11E-05
                                  500 K:  2.86E-05
                                 1000 K:  9.32E-05
                                 1500 K:  1.83E-04

   PRODUCTS
   Molecular Weight (g/mol)            28.23805
   Ambient Density (kg/m^3)            1.174
   Initial Mass Fraction               0.000
   Enthalpy of Formation (J/kg)     -3.00E+06

   Sub Species                    Mass Fraction     Mole Fraction
   NITROGEN                       7.168330E-01      7.225815E-01
   CARBON DIOXIDE                 1.797677E-01      1.153453E-01
   WATER VAPOR                    1.033993E-01      1.620732E-01
   CARBON MONOXIDE                0.000000E+00      0.000000E+00
   SOOT                           0.000000E+00      0.000000E+00
   HYDROGEN CYANIDE               0.000000E+00      0.000000E+00
 
     Viscosity (kg/m/s) Ambient,  293 K:  1.61E-05
                                  500 K:  2.39E-05
                                 1000 K:  3.90E-05
                                 1500 K:  5.15E-05
   Therm. Cond. (W/m/K) Ambient,  293 K:  2.34E-02
                                  500 K:  3.62E-02
                                 1000 K:  6.71E-02
                                 1500 K:  9.62E-02
        Enthalpy (J/kg) Ambient,  293 K: -3.00E+06
                                  500 K: -2.77E+06
                                 1000 K: -2.16E+06
                                 1500 K: -1.48E+06
    Spec. Heat (J/kg/K) Ambient,  293 K:  1.09E+03
                                  500 K:  1.14E+03
                                 1000 K:  1.30E+03
                                 1500 K:  1.40E+03
   Diff. Coeff. (m^2/s) Ambient,  293 K:  1.95E-05
                                  500 K:  4.95E-05
                                 1000 K:  1.60E-04
                                 1500 K:  3.14E-04


 Gas Phase Reaction Information

      Fuel                                           Heat of Combustion (kJ/kg)
      PROPANE                                                        46334.6246

      Primitive Species Stoich. Coeff.
      Species ID                                                          Molar
      PROPANE                                                         -1.000000
      NITROGEN                                                        -0.000000
      OXYGEN                                                          -5.000000
      CARBON DIOXIDE                                                   3.000000
      WATER VAPOR                                                      4.000000

      Tracked (Lumped) Species Stoich. Coeff.
      Species ID                                             Molar         Mass
      AIR                                               -24.089557   -15.707286
      PROPANE                                            -1.000000    -1.000000
      PRODUCTS                                           26.089557    16.707286

      Reaction Kinetics

      Fast chemistry

      ODE Solver:  EXPLICIT EULER
      Extinction Model:  EXTINCTION 2
      Auto-Ignition Temperature (K):       0.0
      Critical Flame Temperature (K):   1720.2

      Prescribed Radiative Fraction:     0.290


 Material Information


 Surface Conditions

   0 INERT (DEFAULT)

   1 BURNER
     HRR Per Unit Area (kW/m2)        333.3
     PROPANE Mass Flux (kg/s/m2)   7.19E-03

   2 OPEN
     Passive Vent to Atmosphere

   3 MIRROR
     Symmetry Plane

   4 INTERPOLATED

   5 PERIODIC

   6 HVAC

   7 MASSLESS TRACER

   8 DROPLET

   9 MASSLESS TARGET

  10 PERIODIC FLOW ONLY


 Lagrangian Particle Classes


 Cut-off Density and Temperature

    Minimum Temperature:   -10.0 C
    Maximum Temperature:  2726.8 C
    Minimum Density:  1.195E-01 kg/m3
    Maximum Density:  4.084E+00 kg/m3


 Radiation Model Information

   Number of control angles  104
   Time step increment         3
   Angle increment             5
   Theta band N_phi   Solid angle
     1:        4     0.120
     2:       12     0.114
     3:       16     0.127
     4:       20     0.120
     5:       20     0.120
     6:       16     0.127
     7:       12     0.114
     8:        4     0.120
   Using gray gas absorption.
   Mean beam length  1.000E-01 m
 
 

 Run Time Diagnostics

       Time Step       1   July  8, 2022  14:17:01
       Step Size:    0.791E-01 s, Total Time:       0.08 s
       Pressure Iterations: 1
       Maximum Velocity Error:  0.13E-02 on Mesh 1 at (24,15,2)
       Maximum Pressure Error:  0.24E-05 on Mesh 1 at (27,25,1)
       ---------------------------------------------------------------
       Max CFL number:  0.20E-01 at (24,26,19)
       Max divergence: -0.55E-05 at (29,12,2)
       Min divergence: -0.17E-02 at (23,17,3)
       Max VN number:   0.28E-01 at (23,17,3)
 
       Time Step       2   July  8, 2022  14:17:01
       Step Size:    0.791E-01 s, Total Time:       0.16 s
       Pressure Iterations: 1
       Maximum Velocity Error:  0.22E-01 on Mesh 1 at (26,19,2)
       Maximum Pressure Error:  0.37E-01 on Mesh 1 at (20,20,3)
       ---------------------------------------------------------------
       Max CFL number:  0.20E-01 at (24,26,19)
       Max divergence:  0.57E+00 at (24,15,3)
       Min divergence: -0.11E-02 at (15,20,39)
       Max VN number:   0.28E-01 at (23,17,3)
       Total Heat Release Rate:             24.526 kW
 
       Time Step       3   July  8, 2022  14:17:01
       Step Size:    0.791E-01 s, Total Time:       0.24 s
       Pressure Iterations: 1
       Maximum Velocity Error:  0.19E-01 on Mesh 1 at (26,26,2)
       Maximum Pressure Error:  0.93E+01 on Mesh 1 at (20,19,3)
       ---------------------------------------------------------------
       Max CFL number:  0.86E-01 at (24,15,3)
       Max divergence:  0.32E+00 at (22,21,3)
       Min divergence: -0.75E-02 at (26,26,3)
       Max VN number:   0.27E-01 at (24,40,16)
       Total Heat Release Rate:              6.695 kW
       Radiation Loss to Boundaries:        -0.936 kW
 
       Time Step       4   July  8, 2022  14:17:01
       Step Size:    0.791E-01 s, Total Time:       0.32 s
       Pressure Iterations: 3
       Maximum Velocity Error:  0.33E-01 on Mesh 1 at (21,26,1)
       Maximum Pressure Error:  0.64E+02 on Mesh 1 at (20,22,3)
       ---------------------------------------------------------------
       Max CFL number:  0.56E-01 at (20,22,3)
       Max divergence:  0.50E+01 at (22,25,3)
       Min divergence: -0.71E-02 at (15,20,39)
       Max VN number:   0.50E-01 at (15,22,3)
       Total Heat Release Rate:            163.019 kW
       Radiation Loss to Boundaries:        -2.603 kW
 
       Time Step       5   July  8, 2022  14:17:01
       Step Size:    0.791E-01 s, Total Time:       0.40 s
       Pressure Iterations: 3
       Maximum Velocity Error:  0.34E-01 on Mesh 1 at (14,21,1)
       Maximum Pressure Error:  0.63E+03 on Mesh 1 at (22,25,3)
       ---------------------------------------------------------------
       Max CFL number:  0.65E+00 at (22,25,3)
       Max divergence:  0.14E+01 at (22,25,3)
       Min divergence: -0.30E-01 at (20,15,3)
       Max VN number:   0.11E+00 at (22,25,3)
       Total Heat Release Rate:             72.606 kW
       Radiation Loss to Boundaries:       -14.704 kW
 
       Time Step       6   July  8, 2022  14:17:01
       Step Size:    0.791E-01 s, Total Time:       0.47 s
       Pressure Iterations: 2
       Maximum Velocity Error:  0.50E-01 on Mesh 1 at (19,26,2)
       Maximum Pressure Error:  0.44E+03 on Mesh 1 at (20,16,3)
       ---------------------------------------------------------------
       Max CFL number:  0.26E+00 at (22,25,3)
       Max divergence:  0.91E+01 at (19,26,3)
       Min divergence: -0.10E-01 at (40,1,40)
       Max VN number:   0.96E-01 at (21,26,3)
       Total Heat Release Rate:            268.515 kW
       Radiation Loss to Boundaries:       -29.238 kW
 
       Time Step       7   July  8, 2022  14:17:01
       Step Size:    0.791E-01 s, Total Time:       0.55 s
       Pressure Iterations: 6
       Maximum Velocity Error:  0.26E-01 on Mesh 1 at (19,26,2)
       Maximum Pressure Error:  0.19E+04 on Mesh 1 at (19,26,3)
       ---------------------------------------------------------------
       Max CFL number:  0.79E+00 at (18,26,3)
       Max divergence:  0.12E+01 at (22,25,4)
       Min divergence: -0.22E+01 at (18,26,3)
       Max VN number:   0.51E+00 at (19,26,3)
       Total Heat Release Rate:            161.988 kW
       Radiation Loss to Boundaries:      -148.161 kW
 
       Time Step       8   July  8, 2022  14:17:01
       Step Size:    0.791E-01 s, Total Time:       0.63 s
       Pressure Iterations: 4
       Maximum Velocity Error:  0.35E-01 on Mesh 1 at (19,26,2)
       Maximum Pressure Error:  0.84E+03 on Mesh 1 at (19,26,3)
       ---------------------------------------------------------------
       Max CFL number:  0.57E+00 at (15,18,3)
       Max divergence:  0.76E+01 at (15,23,3)
       Min divergence: -0.91E-02 at (40,1,40)
       Max VN number:   0.92E-01 at (14,18,3)
       Total Heat Release Rate:            317.245 kW
       Radiation Loss to Boundaries:       -95.542 kW
 
       Time Step       9   July  8, 2022  14:17:02
       Step Size:    0.791E-01 s, Total Time:       0.71 s
       Pressure Iterations: 2
       Maximum Velocity Error:  0.47E-01 on Mesh 1 at (16,26,2)
       Maximum Pressure Error:  0.20E+04 on Mesh 1 at (15,23,3)
       ---------------------------------------------------------------
       Max CFL number:  0.79E+00 at (20,15,3)
       Max divergence:  0.17E+01 at (26,26,3)
       Min divergence: -0.42E+01 at (16,23,3)
       Max VN number:   0.23E+00 at (15,23,3)
       Total Heat Release Rate:            237.122 kW
       Radiation Loss to Boundaries:      -268.657 kW
 
       Time Step      10   July  8, 2022  14:17:02
       Step Size:    0.791E-01 s, Total Time:       0.79 s
       Pressure Iterations: 3
       Maximum Velocity Error:  0.32E-01 on Mesh 1 at (22,26,1)
       Maximum Pressure Error:  0.70E+03 on Mesh 1 at (25,22,3)
       ---------------------------------------------------------------
       Max CFL number:  0.94E+00 at (20,15,3)
       Max divergence:  0.56E+01 at (24,24,3)
       Min divergence: -0.18E+00 at (20,26,4)
       Max VN number:   0.16E+00 at (20,27,3)
       Total Heat Release Rate:            304.685 kW
       Radiation Loss to Boundaries:       -85.778 kW
 
       Time Step      20   July  8, 2022  14:17:03
       Step Size:    0.355E-01 s, Total Time:       1.27 s
       Pressure Iterations: 3
       Maximum Velocity Error:  0.14E-01 on Mesh 1 at (18,20,2)
       Maximum Pressure Error:  0.36E+03 on Mesh 1 at (18,20,3)
       ---------------------------------------------------------------
       Max CFL number:  0.99E+00 at (24,24,4)
       Max divergence:  0.58E+01 at (23,21,3)
       Min divergence: -0.14E+01 at (20,22,6)
       Max VN number:   0.29E+00 at (25,17,7)
       Total Heat Release Rate:            422.577 kW
       Radiation Loss to Boundaries:      -119.930 kW
 
       Time Step      30   July  8, 2022  14:17:04
       Step Size:    0.173E-01 s, Total Time:       1.51 s
       Pressure Iterations: 2
       Maximum Velocity Error:  0.15E-01 on Mesh 1 at (22,20,2)
       Maximum Pressure Error:  0.34E+03 on Mesh 1 at (19,19,10)
       ---------------------------------------------------------------
       Max CFL number:  0.83E+00 at (19,19,10)
       Max divergence:  0.68E+01 at (22,24,3)
       Min divergence: -0.24E+01 at (19,22,8)
       Max VN number:   0.38E+00 at (19,19,10)
       Total Heat Release Rate:            530.514 kW
       Radiation Loss to Boundaries:      -137.464 kW
 
       Time Step      40   July  8, 2022  14:17:05
       Step Size:    0.165E-01 s, Total Time:       1.69 s
       Pressure Iterations: 2
       Maximum Velocity Error:  0.20E-01 on Mesh 1 at (21,21,2)
       Maximum Pressure Error:  0.20E+03 on Mesh 1 at (19,18,12)
       ---------------------------------------------------------------
       Max CFL number:  0.97E+00 at (19,21,8)
       Max divergence:  0.51E+01 at (25,22,3)
       Min divergence: -0.25E+01 at (19,22,12)
       Max VN number:   0.30E+00 at (19,22,11)
       Total Heat Release Rate:            463.639 kW
       Radiation Loss to Boundaries:      -109.909 kW
 
       Time Step      50   July  8, 2022  14:17:06
       Step Size:    0.126E-01 s, Total Time:       1.83 s
       Pressure Iterations: 2
       Maximum Velocity Error:  0.14E-01 on Mesh 1 at (20,15,2)
       Maximum Pressure Error:  0.17E+03 on Mesh 1 at (20,21,10)
       ---------------------------------------------------------------
       Max CFL number:  0.93E+00 at (20,21,10)
       Max divergence:  0.54E+01 at (18,19,3)
       Min divergence: -0.21E+01 at (20,21,10)
       Max VN number:   0.23E+00 at (19,18,15)
       Total Heat Release Rate:            446.476 kW
       Radiation Loss to Boundaries:      -102.109 kW
 
       Time Step      60   July  8, 2022  14:17:07
       Step Size:    0.126E-01 s, Total Time:       1.96 s
       Pressure Iterations: 1
       Maximum Velocity Error:  0.37E-01 on Mesh 1 at (22,15,2)
       Maximum Pressure Error:  0.26E+03 on Mesh 1 at (19,23,17)
       ---------------------------------------------------------------
       Max CFL number:  0.98E+00 at (19,22,12)
       Max divergence:  0.54E+01 at (16,19,3)
       Min divergence: -0.24E+01 at (20,20,11)
       Max VN number:   0.31E+00 at (20,21,14)
       Total Heat Release Rate:            478.668 kW
       Radiation Loss to Boundaries:      -116.083 kW
 
       Time Step      70   July  8, 2022  14:17:08
       Step Size:    0.922E-02 s, Total Time:       2.06 s
       Pressure Iterations: 1
       Maximum Velocity Error:  0.35E-01 on Mesh 1 at (26,23,2)
       Maximum Pressure Error:  0.34E+03 on Mesh 1 at (19,23,21)
       ---------------------------------------------------------------
       Max CFL number:  0.89E+00 at (20,21,10)
       Max divergence:  0.58E+01 at (22,24,3)
       Min divergence: -0.22E+01 at (20,21,19)
       Max VN number:   0.24E+00 at (20,21,18)
       Total Heat Release Rate:            528.378 kW
       Radiation Loss to Boundaries:      -133.774 kW
 
       Time Step      80   July  8, 2022  14:17:09
       Step Size:    0.745E-02 s, Total Time:       2.15 s
       Pressure Iterations: 1
       Maximum Velocity Error:  0.45E-01 on Mesh 1 at (20,21,2)
       Maximum Pressure Error:  0.39E+03 on Mesh 1 at (19,21,19)
       ---------------------------------------------------------------
       Max CFL number:  0.87E+00 at (20,21,18)
       Max divergence:  0.53E+01 at (22,23,3)
       Min divergence: -0.29E+01 at (21,21,16)
       Max VN number:   0.19E+00 at (18,20,18)
       Total Heat Release Rate:            496.964 kW
       Radiation Loss to Boundaries:      -118.909 kW
 
       Time Step      90   July  8, 2022  14:17:10
       Step Size:    0.745E-02 s, Total Time:       2.22 s
       Pressure Iterations: 1
       Maximum Velocity Error:  0.79E-02 on Mesh 1 at (20,20,2)
       Maximum Pressure Error:  0.35E+03 on Mesh 1 at (19,20,15)
       ---------------------------------------------------------------
       Max CFL number:  0.78E+00 at (20,22,20)
       Max divergence:  0.59E+01 at (21,25,3)
       Min divergence: -0.28E+01 at (19,20,14)
       Max VN number:   0.19E+00 at (19,20,21)
       Total Heat Release Rate:            500.667 kW
       Radiation Loss to Boundaries:      -120.723 kW
 
       Time Step     100   July  8, 2022  14:17:11
       Step Size:    0.819E-02 s, Total Time:       2.31 s
       Pressure Iterations: 1
       Maximum Velocity Error:  0.67E-02 on Mesh 1 at (21,24,2)
       Maximum Pressure Error:  0.52E+03 on Mesh 1 at (21,22,26)
       ---------------------------------------------------------------
       Max CFL number:  0.87E+00 at (19,20,18)
       Max divergence:  0.53E+01 at (24,21,3)
       Min divergence: -0.27E+01 at (20,21,12)
       Max VN number:   0.24E+00 at (20,22,27)
       Total Heat Release Rate:            485.626 kW
       Radiation Loss to Boundaries:      -118.531 kW
 
       Time Step     200   July  8, 2022  14:17:21
       Step Size:    0.692E-02 s, Total Time:       3.07 s
       Pressure Iterations: 1
       Maximum Velocity Error:  0.45E-02 on Mesh 1 at (21,21,2)
       Maximum Pressure Error:  0.55E+03 on Mesh 1 at (19,22,34)
       ---------------------------------------------------------------
       Max CFL number:  0.85E+00 at (20,22,32)
       Max divergence:  0.50E+01 at (24,20,3)
       Min divergence: -0.34E+01 at (22,22,16)
       Max VN number:   0.41E+00 at (27,14,40)
       Total Heat Release Rate:            490.602 kW
       Radiation Loss to Boundaries:      -118.996 kW
 
       Time Step     300   July  8, 2022  14:17:31
       Step Size:    0.814E-02 s, Total Time:       3.88 s
       Pressure Iterations: 2
       Maximum Velocity Error:  0.13E-01 on Mesh 1 at (17,20,2)
       Maximum Pressure Error:  0.66E+03 on Mesh 1 at (21,20,23)
       ---------------------------------------------------------------
       Max CFL number:  0.88E+00 at (21,20,23)
       Max divergence:  0.64E+01 at (24,20,3)
       Min divergence: -0.28E+01 at (20,21,22)
       Max VN number:   0.40E+00 at (1,23,29)
       Total Heat Release Rate:            502.041 kW
       Radiation Loss to Boundaries:      -122.191 kW
 
       Time Step     400   July  8, 2022  14:17:41
       Step Size:    0.790E-02 s, Total Time:       4.73 s
       Pressure Iterations: 2
       Maximum Velocity Error:  0.25E-01 on Mesh 1 at (17,20,2)
       Maximum Pressure Error:  0.81E+03 on Mesh 1 at (17,20,3)
       ---------------------------------------------------------------
       Max CFL number:  0.91E+00 at (21,19,22)
       Max divergence:  0.67E+01 at (21,17,3)
       Min divergence: -0.33E+01 at (21,23,15)
       Max VN number:   0.39E+00 at (1,37,22)
       Total Heat Release Rate:            494.213 kW
       Radiation Loss to Boundaries:      -127.593 kW
 
       Time Step     500   July  8, 2022  14:17:51
       Step Size:    0.907E-02 s, Total Time:       5.57 s
       Pressure Iterations: 1
       Maximum Velocity Error:  0.34E-01 on Mesh 1 at (21,19,2)
       Maximum Pressure Error:  0.38E+03 on Mesh 1 at (23,21,28)
       ---------------------------------------------------------------
       Max CFL number:  0.91E+00 at (22,20,30)
       Max divergence:  0.64E+01 at (20,17,3)
       Min divergence: -0.25E+01 at (18,19,7)
       Max VN number:   0.42E+00 at (19,13,40)
       Total Heat Release Rate:            476.857 kW
       Radiation Loss to Boundaries:      -120.973 kW
 
       Time Step     600   July  8, 2022  14:18:02
       Step Size:    0.975E-02 s, Total Time:       6.49 s
       Pressure Iterations: 3
       Maximum Velocity Error:  0.12E-01 on Mesh 1 at (20,21,2)
       Maximum Pressure Error:  0.11E+04 on Mesh 1 at (20,21,3)
       ---------------------------------------------------------------
       Max CFL number:  0.96E+00 at (22,21,25)
       Max divergence:  0.75E+01 at (21,21,3)
       Min divergence: -0.25E+01 at (20,21,3)
       Max VN number:   0.50E+00 at (1,37,31)
       Total Heat Release Rate:            487.832 kW
       Radiation Loss to Boundaries:      -126.302 kW
 
       Time Step     700   July  8, 2022  14:18:13
       Step Size:    0.101E-01 s, Total Time:       7.40 s
       Pressure Iterations: 1
       Maximum Velocity Error:  0.27E-01 on Mesh 1 at (20,24,2)
       Maximum Pressure Error:  0.31E+03 on Mesh 1 at (19,22,21)
       ---------------------------------------------------------------
       Max CFL number:  0.91E+00 at (18,22,15)
       Max divergence:  0.55E+01 at (21,17,3)
       Min divergence: -0.30E+01 at (23,21,10)
       Max VN number:   0.44E+00 at (38,40,32)
       Total Heat Release Rate:            488.511 kW
       Radiation Loss to Boundaries:      -125.349 kW
 
       Time Step     800   July  8, 2022  14:18:23
       Step Size:    0.982E-02 s, Total Time:       8.29 s
       Pressure Iterations: 2
       Maximum Velocity Error:  0.11E-01 on Mesh 1 at (20,20,2)
       Maximum Pressure Error:  0.39E+03 on Mesh 1 at (23,20,40)
       ---------------------------------------------------------------
       Max CFL number:  0.84E+00 at (20,20,16)
       Max divergence:  0.53E+01 at (20,18,3)
       Min divergence: -0.26E+01 at (21,20,8)
       Max VN number:   0.45E+00 at (9,14,40)
       Total Heat Release Rate:            494.876 kW
       Radiation Loss to Boundaries:      -126.189 kW
 
       Time Step     900   July  8, 2022  14:18:34
       Step Size:    0.928E-02 s, Total Time:       9.22 s
       Pressure Iterations: 2
       Maximum Velocity Error:  0.23E-01 on Mesh 1 at (21,20,2)
       Maximum Pressure Error:  0.63E+03 on Mesh 1 at (20,16,23)
       ---------------------------------------------------------------
       Max CFL number:  0.99E+00 at (20,16,22)
       Max divergence:  0.69E+01 at (22,26,3)
       Min divergence: -0.56E+01 at (20,16,23)
       Max VN number:   0.53E+00 at (20,2,40)
       Total Heat Release Rate:            515.536 kW
       Radiation Loss to Boundaries:      -134.936 kW
 
       Time Step    1000   July  8, 2022  14:18:45
       Step Size:    0.950E-02 s, Total Time:      10.10 s
       Pressure Iterations: 1
       Maximum Velocity Error:  0.15E-01 on Mesh 1 at (20,21,2)
       Maximum Pressure Error:  0.76E+03 on Mesh 1 at (20,20,20)
       ---------------------------------------------------------------
       Max CFL number:  0.92E+00 at (23,22,23)
       Max divergence:  0.45E+01 at (21,24,3)
       Min divergence: -0.27E+01 at (20,20,19)
       Max VN number:   0.49E+00 at (6,2,40)
       Total Heat Release Rate:            540.076 kW
       Radiation Loss to Boundaries:      -141.260 kW
 
       Time Step    1100   July  8, 2022  14:18:56
       Step Size:    0.101E-01 s, Total Time:      11.04 s
       Pressure Iterations: 1
       Maximum Velocity Error:  0.15E-01 on Mesh 1 at (21,20,2)
       Maximum Pressure Error:  0.41E+03 on Mesh 1 at (18,22,22)
       ---------------------------------------------------------------
       Max CFL number:  0.91E+00 at (20,21,14)
       Max divergence:  0.43E+01 at (24,19,3)
       Min divergence: -0.24E+01 at (20,21,14)
       Max VN number:   0.52E+00 at (12,22,40)
       Total Heat Release Rate:            482.061 kW
       Radiation Loss to Boundaries:      -130.792 kW
 
       Time Step    1200   July  8, 2022  14:19:07
       Step Size:    0.986E-02 s, Total Time:      11.98 s
       Pressure Iterations: 1
       Maximum Velocity Error:  0.14E-01 on Mesh 1 at (21,18,2)
       Maximum Pressure Error:  0.51E+03 on Mesh 1 at (21,21,14)
       ---------------------------------------------------------------
       Max CFL number:  0.92E+00 at (21,21,14)
       Max divergence:  0.69E+01 at (18,17,3)
       Min divergence: -0.27E+01 at (20,22,26)
       Max VN number:   0.46E+00 at (21,39,40)
       Total Heat Release Rate:            509.870 kW
       Radiation Loss to Boundaries:      -139.585 kW
 
       Time Step    1300   July  8, 2022  14:19:17
       Step Size:    0.104E-01 s, Total Time:      12.94 s
       Pressure Iterations: 1
       Maximum Velocity Error:  0.49E-01 on Mesh 1 at (26,21,2)
       Maximum Pressure Error:  0.45E+03 on Mesh 1 at (24,18,17)
       ---------------------------------------------------------------
       Max CFL number:  0.83E+00 at (21,18,22)
       Max divergence:  0.55E+01 at (16,17,3)
       Min divergence: -0.23E+01 at (16,19,32)
       Max VN number:   0.47E+00 at (39,22,40)
       Total Heat Release Rate:            521.305 kW
       Radiation Loss to Boundaries:      -142.790 kW
 
       Time Step    1400   July  8, 2022  14:19:28
       Step Size:    0.102E-01 s, Total Time:      13.93 s
       Pressure Iterations: 1
       Maximum Velocity Error:  0.17E-01 on Mesh 1 at (20,26,2)
       Maximum Pressure Error:  0.31E+03 on Mesh 1 at (22,20,16)
       ---------------------------------------------------------------
       Max CFL number:  0.89E+00 at (23,20,15)
       Max divergence:  0.68E+01 at (24,21,3)
       Min divergence: -0.21E+01 at (18,22,20)
       Max VN number:   0.49E+00 at (22,22,40)
       Total Heat Release Rate:            505.344 kW
       Radiation Loss to Boundaries:      -137.452 kW
 
       Time Step    1500   July  8, 2022  14:19:39
       Step Size:    0.109E-01 s, Total Time:      15.00 s
       Pressure Iterations: 1
       Maximum Velocity Error:  0.26E-01 on Mesh 1 at (21,20,2)
       Maximum Pressure Error:  0.39E+03 on Mesh 1 at (18,20,17)
       ---------------------------------------------------------------
       Max CFL number:  0.87E+00 at (18,20,17)
       Max divergence:  0.49E+01 at (16,20,3)
       Min divergence: -0.27E+01 at (21,19,4)
       Max VN number:   0.42E+00 at (3,20,40)
       Total Heat Release Rate:            507.000 kW
       Radiation Loss to Boundaries:      -143.214 kW
 
       Time Step    1600   July  8, 2022  14:19:50
       Step Size:    0.109E-01 s, Total Time:      16.04 s
       Pressure Iterations: 1
       Maximum Velocity Error:  0.18E-01 on Mesh 1 at (20,21,2)
       Maximum Pressure Error:  0.30E+03 on Mesh 1 at (18,20,40)
       ---------------------------------------------------------------
       Max CFL number:  0.91E+00 at (17,19,30)
       Max divergence:  0.42E+01 at (17,23,3)
       Min divergence: -0.28E+01 at (19,23,11)
       Max VN number:   0.38E+00 at (29,24,40)
       Total Heat Release Rate:            483.655 kW
       Radiation Loss to Boundaries:      -139.763 kW
 
       Time Step    1700   July  8, 2022  14:20:01
       Step Size:    0.106E-01 s, Total Time:      17.10 s
       Pressure Iterations: 1
       Maximum Velocity Error:  0.19E-01 on Mesh 1 at (21,20,2)
       Maximum Pressure Error:  0.25E+03 on Mesh 1 at (19,21,40)
       ---------------------------------------------------------------
       Max CFL number:  0.82E+00 at (18,21,23)
       Max divergence:  0.46E+01 at (22,20,3)
       Min divergence: -0.19E+01 at (21,18,11)
       Max VN number:   0.45E+00 at (37,39,40)
       Total Heat Release Rate:            495.065 kW
       Radiation Loss to Boundaries:      -150.604 kW
 
       Time Step    1800   July  8, 2022  14:20:11
       Step Size:    0.108E-01 s, Total Time:      18.12 s
       Pressure Iterations: 1
       Maximum Velocity Error:  0.25E-01 on Mesh 1 at (19,21,2)
       Maximum Pressure Error:  0.26E+03 on Mesh 1 at (21,23,15)
       ---------------------------------------------------------------
       Max CFL number:  0.94E+00 at (19,23,34)
       Max divergence:  0.40E+01 at (16,18,3)
       Min divergence: -0.21E+01 at (20,23,20)
       Max VN number:   0.38E+00 at (37,19,40)
       Total Heat Release Rate:            510.459 kW
       Radiation Loss to Boundaries:      -151.417 kW
 
       Time Step    1900   July  8, 2022  14:20:22
       Step Size:    0.112E-01 s, Total Time:      19.15 s
       Pressure Iterations: 1
       Maximum Velocity Error:  0.16E-01 on Mesh 1 at (25,21,2)
       Maximum Pressure Error:  0.22E+03 on Mesh 1 at (19,22,15)
       ---------------------------------------------------------------
       Max CFL number:  0.86E+00 at (20,22,14)
       Max divergence:  0.49E+01 at (18,25,3)
       Min divergence: -0.25E+01 at (20,22,11)
       Max VN number:   0.51E+00 at (3,11,40)
       Total Heat Release Rate:            506.190 kW
       Radiation Loss to Boundaries:      -148.641 kW
 
       Time Step    2000   July  8, 2022  14:20:33
       Step Size:    0.964E-02 s, Total Time:      20.25 s
       Pressure Iterations: 1
       Maximum Velocity Error:  0.63E-02 on Mesh 1 at (21,23,2)
       Maximum Pressure Error:  0.22E+03 on Mesh 1 at (22,22,31)
       ---------------------------------------------------------------
       Max CFL number:  0.91E+00 at (22,21,25)
       Max divergence:  0.40E+01 at (22,25,3)
       Min divergence: -0.16E+01 at (19,20,19)
       Max VN number:   0.39E+00 at (24,37,40)
       Total Heat Release Rate:            484.926 kW
       Radiation Loss to Boundaries:      -154.093 kW
 
       Time Step    2100   July  8, 2022  14:20:44
       Step Size:    0.103E-01 s, Total Time:      21.31 s
       Pressure Iterations: 1
       Maximum Velocity Error:  0.60E-02 on Mesh 1 at (19,20,2)
       Maximum Pressure Error:  0.27E+03 on Mesh 1 at (21,19,20)
       ---------------------------------------------------------------
       Max CFL number:  0.93E+00 at (20,20,23)
       Max divergence:  0.37E+01 at (15,20,3)
       Min divergence: -0.22E+01 at (21,19,20)
       Max VN number:   0.40E+00 at (9,13,40)
       Total Heat Release Rate:            478.985 kW
       Radiation Loss to Boundaries:      -151.968 kW
 
       Time Step    2200   July  8, 2022  14:20:54
       Step Size:    0.997E-02 s, Total Time:      22.36 s
       Pressure Iterations: 1
       Maximum Velocity Error:  0.12E-01 on Mesh 1 at (18,23,2)
       Maximum Pressure Error:  0.15E+03 on Mesh 1 at (21,22,25)
       ---------------------------------------------------------------
       Max CFL number:  0.84E+00 at (21,22,23)
       Max divergence:  0.38E+01 at (18,25,3)
       Min divergence: -0.18E+01 at (20,23,16)
       Max VN number:   0.31E+00 at (1,38,31)
       Total Heat Release Rate:            499.356 kW
       Radiation Loss to Boundaries:      -160.491 kW
 
       Time Step    2300   July  8, 2022  14:21:04
       Step Size:    0.119E-01 s, Total Time:      23.48 s
       Pressure Iterations: 1
       Maximum Velocity Error:  0.13E-01 on Mesh 1 at (20,20,2)
       Maximum Pressure Error:  0.21E+03 on Mesh 1 at (17,19,40)
       ---------------------------------------------------------------
       Max CFL number:  0.93E+00 at (22,20,25)
       Max divergence:  0.48E+01 at (24,23,3)
       Min divergence: -0.17E+01 at (18,19,13)
       Max VN number:   0.52E+00 at (30,2,40)
       Total Heat Release Rate:            521.339 kW
       Radiation Loss to Boundaries:      -174.747 kW
 
       Time Step    2400   July  8, 2022  14:21:15
       Step Size:    0.117E-01 s, Total Time:      24.60 s
       Pressure Iterations: 1
       Maximum Velocity Error:  0.35E-01 on Mesh 1 at (21,21,2)
       Maximum Pressure Error:  0.35E+03 on Mesh 1 at (20,28,40)
       ---------------------------------------------------------------
       Max CFL number:  0.87E+00 at (19,20,26)
       Max divergence:  0.53E+01 at (21,17,3)
       Min divergence: -0.24E+01 at (22,22,4)
       Max VN number:   0.53E+00 at (25,19,40)
       Total Heat Release Rate:            495.264 kW
       Radiation Loss to Boundaries:      -170.447 kW
 
       Time Step    2500   July  8, 2022  14:21:26
       Step Size:    0.129E-01 s, Total Time:      25.79 s
       Pressure Iterations: 1
       Maximum Velocity Error:  0.10E-01 on Mesh 1 at (17,19,2)
       Maximum Pressure Error:  0.13E+03 on Mesh 1 at (19,21,19)
       ---------------------------------------------------------------
       Max CFL number:  0.91E+00 at (21,20,21)
       Max divergence:  0.44E+01 at (19,25,3)
       Min divergence: -0.12E+01 at (19,21,16)
       Max VN number:   0.42E+00 at (17,19,40)
       Total Heat Release Rate:            497.224 kW
       Radiation Loss to Boundaries:      -171.006 kW
 
       Time Step    2600   July  8, 2022  14:21:36
       Step Size:    0.113E-01 s, Total Time:      27.01 s
       Pressure Iterations: 1
       Maximum Velocity Error:  0.17E-01 on Mesh 1 at (18,19,2)
       Maximum Pressure Error:  0.43E+03 on Mesh 1 at (25,17,40)
       ---------------------------------------------------------------
       Max CFL number:  0.89E+00 at (19,23,27)
       Max divergence:  0.54E+01 at (18,19,3)
       Min divergence: -0.18E+01 at (19,20,10)
       Max VN number:   0.38E+00 at (22,6,40)
       Total Heat Release Rate:            496.049 kW
       Radiation Loss to Boundaries:      -168.285 kW
 
       Time Step    2700   July  8, 2022  14:21:47
       Step Size:    0.971E-02 s, Total Time:      28.16 s
       Pressure Iterations: 1
       Maximum Velocity Error:  0.10E-01 on Mesh 1 at (20,20,2)
       Maximum Pressure Error:  0.41E+03 on Mesh 1 at (24,20,40)
       ---------------------------------------------------------------
       Max CFL number:  0.87E+00 at (18,20,31)
       Max divergence:  0.44E+01 at (23,24,3)
       Min divergence: -0.15E+01 at (18,21,32)
       Max VN number:   0.37E+00 at (15,39,40)
       Total Heat Release Rate:            482.492 kW
       Radiation Loss to Boundaries:      -175.882 kW
 
       Time Step    2800   July  8, 2022  14:21:57
       Step Size:    0.111E-01 s, Total Time:      29.25 s
       Pressure Iterations: 1
       Maximum Velocity Error:  0.27E-01 on Mesh 1 at (20,15,2)
       Maximum Pressure Error:  0.21E+03 on Mesh 1 at (16,18,40)
       ---------------------------------------------------------------
       Max CFL number:  0.80E+00 at (18,18,20)
       Max divergence:  0.47E+01 at (20,15,3)
       Min divergence: -0.22E+01 at (17,18,21)
       Max VN number:   0.61E+00 at (21,39,40)
       Total Heat Release Rate:            483.701 kW
       Radiation Loss to Boundaries:      -175.060 kW
 
       Time Step    2866   July  8, 2022  14:22:04
       Step Size:    0.614E-02 s, Total Time:      30.00 s
       Pressure Iterations: 1
       Maximum Velocity Error:  0.40E-01 on Mesh 1 at (21,21,2)
       Maximum Pressure Error:  0.32E+03 on Mesh 1 at (22,21,3)
       ---------------------------------------------------------------
       Max CFL number:  0.49E+00 at (23,23,23)
       Max divergence:  0.47E+01 at (21,25,3)
       Min divergence: -0.16E+01 at (20,22,11)
       Max VN number:   0.22E+00 at (3,1,37)
       Total Heat Release Rate:            497.856 kW
       Radiation Loss to Boundaries:      -182.592 kW
 


 Time Stepping Wall Clock Time (s):      303.972
 Total Elapsed Wall Clock Time (s):      305.709

STOP: FDS completed successfully (CHID: hrrpua_500)
