
 Fire Dynamics Simulator

 Current Date     : July  8, 2022  14:06:36
 Revision         : FDS6.7.8-0-gfbf3e11ee-release
 Revision Date    : Tue May 24 18:07:45 2022 -0400
 Compiler         : ifort version 2021.5.0
 Compilation Date : May 25, 2022 06:01:34

 MPI Enabled;    Number of MPI Processes:       1
 OpenMP Disabled

 MPI version: 3.1
 MPI library version: Intel(R) MPI Library 2021.4 for Linux* OS


 Job TITLE        : 
 Job ID string    : hrrpua_1500


 Grid Dimensions, Mesh     1

   Cells in the X Direction            40
   Cells in the Y Direction            40
   Cells in the Z Direction            40
   Number of Grid Cells             64000


 Physical Dimensions, Mesh     1

   Length (m)                       4.000
   Width  (m)                       4.000
   Height (m)                       4.000
   Initial Time Step (s)            0.079

 Total Number of Grid Cells         64000


 Maximum Cell Aspect Ratio          1.000
 CFL Velocity Norm                      2


 Miscellaneous Parameters

   Simulation Start Time (s)          0.0
   Simulation End Time (s)           30.0
   Background Pressure (Pa)     101325.00
   Ambient Temperature (C)          20.00

   3D Cartesian
   VLES Calculation
   Eddy Viscosity: Deardorff Model (C_DEARDORFF = 0.10)
   Surface INERT Eddy Viscosity: WALE Model (C_WALE = 0.60)
   Surface BURNER Eddy Viscosity: WALE Model (C_WALE = 0.60)
   Turbulent Prandtl Number:         0.50
   Turbulent Schmidt Number:         0.50


 Background Stratification

      Z (m)     P_0 (Pa)    TMP_0 (C)
   ------------------------------------
        3.95    101278.70     20.00
        3.85    101279.87     20.00
        3.75    101281.04     20.00
        3.65    101282.21     20.00
        3.55    101283.38     20.00
        3.45    101284.56     20.00
        3.35    101285.73     20.00
        3.25    101286.90     20.00
        3.15    101288.07     20.00
        3.05    101289.24     20.00
        2.95    101290.41     20.00
        2.85    101291.59     20.00
        2.75    101292.76     20.00
        2.65    101293.93     20.00
        2.55    101295.10     20.00
        2.45    101296.27     20.00
        2.35    101297.44     20.00
        2.25    101298.62     20.00
        2.15    101299.79     20.00
        2.05    101300.96     20.00
        1.95    101302.13     20.00
        1.85    101303.30     20.00
        1.75    101304.48     20.00
        1.65    101305.65     20.00
        1.55    101306.82     20.00
        1.45    101307.99     20.00
        1.35    101309.16     20.00
        1.25    101310.34     20.00
        1.15    101311.51     20.00
        1.05    101312.68     20.00
        0.95    101313.85     20.00
        0.85    101315.02     20.00
        0.75    101316.20     20.00
        0.65    101317.37     20.00
        0.55    101318.54     20.00
        0.45    101319.71     20.00
        0.35    101320.88     20.00
        0.25    101322.06     20.00
        0.15    101323.23     20.00
        0.05    101324.40     20.00


 Mass Fraction Transformation Matrix to Convert Species Mixtures (Columns) to Primitive Species (Rows)

                         AIR       PROPANE   PRODUCTS
   PROPANE               0.000000  1.000000  0.000000
   NITROGEN              0.762470  0.000000  0.716833
   OXYGEN                0.230997  0.000000  0.000000
   CARBON DIOXIDE        0.000591  0.000000  0.179768
   WATER VAPOR           0.005941  0.000000  0.103399
   CARBON MONOXIDE       0.000000  0.000000  0.000000
   SOOT                  0.000000  0.000000  0.000000
   HYDROGEN              0.000000  0.000000  0.000000
   HYDROGEN CYANIDE      0.000000  0.000000  0.000000


 Primitive Species Information

   PROPANE
   Gas Species
   Molecular Weight (g/mol)            44.09562
   Ambient Density (kg/m^3)            1.833
   Enthalpy of Formation (J/kg)       -2.37E+06

   NITROGEN
   Gas Species
   Molecular Weight (g/mol)            28.01340
   Ambient Density (kg/m^3)            1.165
   Enthalpy of Formation (J/kg)        0.00E+00

   OXYGEN
   Gas Species
   Molecular Weight (g/mol)            31.99880
   Ambient Density (kg/m^3)            1.330
   Enthalpy of Formation (J/kg)        0.00E+00

   CARBON DIOXIDE
   Gas Species
   Molecular Weight (g/mol)            44.00950
   Ambient Density (kg/m^3)            1.830
   Enthalpy of Formation (J/kg)       -8.94E+06

   WATER VAPOR
   Gas Species
   Molecular Weight (g/mol)            18.01528
   Ambient Density (kg/m^3)            0.749
   Enthalpy of Formation (J/kg)       -1.34E+07

   CARBON MONOXIDE
   Gas Species
   Molecular Weight (g/mol)            28.01010
   Ambient Density (kg/m^3)            1.164
   Enthalpy of Formation (J/kg)       -3.95E+06

   SOOT
   Gas Species
   Molecular Weight (g/mol)            10.91042
   Ambient Density (kg/m^3)            0.454
   Enthalpy of Formation (J/kg)        0.00E+00

   HYDROGEN
   Gas Species
   Molecular Weight (g/mol)             2.01588
   Ambient Density (kg/m^3)            0.084
   Enthalpy of Formation (J/kg)        0.00E+00

   HYDROGEN CYANIDE
   Gas Species
   Molecular Weight (g/mol)            27.02534
   Ambient Density (kg/m^3)            1.123
   Enthalpy of Formation (J/kg)        4.92E+06


 Tracked (Lumped) Species Information

   AIR
   Molecular Weight (g/mol)            28.75198
   Ambient Density (kg/m^3)            1.195
   Initial Mass Fraction               1.000
   Enthalpy of Formation (J/kg)     -8.50E+04

   Sub Species                    Mass Fraction     Mole Fraction
   NITROGEN                       7.624699E-01      7.825727E-01
   OXYGEN                         2.309974E-01      2.075588E-01
   CARBON DIOXIDE                 5.914650E-04      3.864118E-04
   WATER VAPOR                    5.941209E-03      9.482037E-03
 
     Viscosity (kg/m/s) Ambient,  293 K:  1.80E-05
                                  500 K:  2.61E-05
                                 1000 K:  4.13E-05
                                 1500 K:  5.37E-05
   Therm. Cond. (W/m/K) Ambient,  293 K:  2.56E-02
                                  500 K:  3.81E-02
                                 1000 K:  6.69E-02
                                 1500 K:  9.25E-02
        Enthalpy (J/kg) Ambient,  293 K: -9.01E+04
                                  500 K:  1.22E+05
                                 1000 K:  6.72E+05
                                 1500 K:  1.27E+06
    Spec. Heat (J/kg/K) Ambient,  293 K:  1.02E+03
                                  500 K:  1.04E+03
                                 1000 K:  1.16E+03
                                 1500 K:  1.23E+03
   Diff. Coeff. (m^2/s) Ambient,  293 K:  1.99E-05
                                  500 K:  4.96E-05
                                 1000 K:  1.58E-04
                                 1500 K:  3.09E-04

   PROPANE
   Molecular Weight (g/mol)            44.09562
   Ambient Density (kg/m^3)            1.833
   Initial Mass Fraction               0.000
   Enthalpy of Formation (J/kg)     -2.37E+06

   Sub Species                    Mass Fraction     Mole Fraction
   PROPANE                        1.000000E+00      1.000000E+00
 
     Viscosity (kg/m/s) Ambient,  293 K:  8.08E-06
                                  500 K:  1.31E-05
                                 1000 K:  2.23E-05
                                 1500 K:  2.96E-05
   Therm. Cond. (W/m/K) Ambient,  293 K:  1.66E-02
                                  500 K:  4.18E-02
                                 1000 K:  1.11E-01
                                 1500 K:  1.72E-01
        Enthalpy (J/kg) Ambient,  293 K: -2.38E+06
                                  500 K: -1.95E+06
                                 1000 K: -2.77E+05
                                 1500 K:  1.90E+06
    Spec. Heat (J/kg/K) Ambient,  293 K:  1.65E+03
                                  500 K:  2.55E+03
                                 1000 K:  3.96E+03
                                 1500 K:  4.67E+03
   Diff. Coeff. (m^2/s) Ambient,  293 K:  1.11E-05
                                  500 K:  2.86E-05
                                 1000 K:  9.32E-05
                                 1500 K:  1.83E-04

   PRODUCTS
   Molecular Weight (g/mol)            28.23805
   Ambient Density (kg/m^3)            1.174
   Initial Mass Fraction               0.000
   Enthalpy of Formation (J/kg)     -3.00E+06

   Sub Species                    Mass Fraction     Mole Fraction
   NITROGEN                       7.168330E-01      7.225815E-01
   CARBON DIOXIDE                 1.797677E-01      1.153453E-01
   WATER VAPOR                    1.033993E-01      1.620732E-01
   CARBON MONOXIDE                0.000000E+00      0.000000E+00
   SOOT                           0.000000E+00      0.000000E+00
   HYDROGEN CYANIDE               0.000000E+00      0.000000E+00
 
     Viscosity (kg/m/s) Ambient,  293 K:  1.61E-05
                                  500 K:  2.39E-05
                                 1000 K:  3.90E-05
                                 1500 K:  5.15E-05
   Therm. Cond. (W/m/K) Ambient,  293 K:  2.34E-02
                                  500 K:  3.62E-02
                                 1000 K:  6.71E-02
                                 1500 K:  9.62E-02
        Enthalpy (J/kg) Ambient,  293 K: -3.00E+06
                                  500 K: -2.77E+06
                                 1000 K: -2.16E+06
                                 1500 K: -1.48E+06
    Spec. Heat (J/kg/K) Ambient,  293 K:  1.09E+03
                                  500 K:  1.14E+03
                                 1000 K:  1.30E+03
                                 1500 K:  1.40E+03
   Diff. Coeff. (m^2/s) Ambient,  293 K:  1.95E-05
                                  500 K:  4.95E-05
                                 1000 K:  1.60E-04
                                 1500 K:  3.14E-04


 Gas Phase Reaction Information

      Fuel                                           Heat of Combustion (kJ/kg)
      PROPANE                                                        46334.6246

      Primitive Species Stoich. Coeff.
      Species ID                                                          Molar
      PROPANE                                                         -1.000000
      NITROGEN                                                        -0.000000
      OXYGEN                                                          -5.000000
      CARBON DIOXIDE                                                   3.000000
      WATER VAPOR                                                      4.000000

      Tracked (Lumped) Species Stoich. Coeff.
      Species ID                                             Molar         Mass
      AIR                                               -24.089557   -15.707286
      PROPANE                                            -1.000000    -1.000000
      PRODUCTS                                           26.089557    16.707286

      Reaction Kinetics

      Fast chemistry

      ODE Solver:  EXPLICIT EULER
      Extinction Model:  EXTINCTION 2
      Auto-Ignition Temperature (K):       0.0
      Critical Flame Temperature (K):   1720.2

      Prescribed Radiative Fraction:     0.290


 Material Information


 Surface Conditions

   0 INERT (DEFAULT)

   1 BURNER
     HRR Per Unit Area (kW/m2)       1000.0
     PROPANE Mass Flux (kg/s/m2)   2.16E-02

   2 OPEN
     Passive Vent to Atmosphere

   3 MIRROR
     Symmetry Plane

   4 INTERPOLATED

   5 PERIODIC

   6 HVAC

   7 MASSLESS TRACER

   8 DROPLET

   9 MASSLESS TARGET

  10 PERIODIC FLOW ONLY


 Lagrangian Particle Classes


 Cut-off Density and Temperature

    Minimum Temperature:   -10.0 C
    Maximum Temperature:  2726.8 C
    Minimum Density:  1.195E-01 kg/m3
    Maximum Density:  4.084E+00 kg/m3


 Radiation Model Information

   Number of control angles  104
   Time step increment         3
   Angle increment             5
   Theta band N_phi   Solid angle
     1:        4     0.120
     2:       12     0.114
     3:       16     0.127
     4:       20     0.120
     5:       20     0.120
     6:       16     0.127
     7:       12     0.114
     8:        4     0.120
   Using gray gas absorption.
   Mean beam length  1.000E-01 m
 
 

 Run Time Diagnostics

       Time Step       1   July  8, 2022  14:06:36
       Step Size:    0.791E-01 s, Total Time:       0.08 s
       Pressure Iterations: 1
       Maximum Velocity Error:  0.14E-02 on Mesh 1 at (24,15,2)
       Maximum Pressure Error:  0.34E-05 on Mesh 1 at (22,21,1)
       ---------------------------------------------------------------
       Max CFL number:  0.21E-01 at (24,26,19)
       Max divergence: -0.20E-04 at (29,12,2)
       Min divergence: -0.46E-02 at (23,17,3)
       Max VN number:   0.28E-01 at (23,17,3)
 
       Time Step       2   July  8, 2022  14:06:36
       Step Size:    0.791E-01 s, Total Time:       0.16 s
       Pressure Iterations: 2
       Maximum Velocity Error:  0.32E-01 on Mesh 1 at (26,20,2)
       Maximum Pressure Error:  0.25E+00 on Mesh 1 at (20,20,3)
       ---------------------------------------------------------------
       Max CFL number:  0.20E-01 at (24,26,19)
       Max divergence:  0.16E+01 at (20,22,3)
       Min divergence: -0.32E-02 at (15,20,39)
       Max VN number:   0.28E-01 at (23,17,3)
       Total Heat Release Rate:             71.685 kW
 
       Time Step       3   July  8, 2022  14:06:37
       Step Size:    0.791E-01 s, Total Time:       0.24 s
       Pressure Iterations: 1
       Maximum Velocity Error:  0.44E-01 on Mesh 1 at (25,26,2)
       Maximum Pressure Error:  0.53E+02 on Mesh 1 at (15,22,3)
       ---------------------------------------------------------------
       Max CFL number:  0.24E+00 at (26,23,3)
       Max divergence:  0.14E+01 at (22,21,3)
       Min divergence: -0.21E-02 at (15,20,39)
       Max VN number:   0.33E-01 at (20,22,3)
       Total Heat Release Rate:             49.657 kW
       Radiation Loss to Boundaries:        -2.455 kW
 
       Time Step       4   July  8, 2022  14:06:37
       Step Size:    0.791E-01 s, Total Time:       0.32 s
       Pressure Iterations: 4
       Maximum Velocity Error:  0.42E-01 on Mesh 1 at (21,26,1)
       Maximum Pressure Error:  0.40E+03 on Mesh 1 at (20,22,3)
       ---------------------------------------------------------------
       Max CFL number:  0.21E+00 at (20,22,3)
       Max divergence:  0.14E+02 at (21,25,3)
       Min divergence: -0.21E-01 at (1,1,40)
       Max VN number:   0.16E+00 at (22,15,3)
       Total Heat Release Rate:            488.295 kW
       Radiation Loss to Boundaries:        -9.414 kW
 
       Time Step       5   July  8, 2022  14:06:37
       Step Size:    0.453E-01 s, Total Time:       0.36 s
       Pressure Iterations: 5
       Maximum Velocity Error:  0.43E-01 on Mesh 1 at (21,26,1)
       Maximum Pressure Error:  0.18E+04 on Mesh 1 at (21,25,3)
       ---------------------------------------------------------------
       Max CFL number:  0.90E+00 at (22,25,3)
       Max divergence:  0.48E+01 at (20,20,3)
       Min divergence: -0.16E-01 at (1,1,40)
       Max VN number:   0.30E+00 at (21,25,3)
       Total Heat Release Rate:            450.239 kW
       Radiation Loss to Boundaries:       -87.384 kW
       No. of CLIP DT restrictions:  1
 
       Time Step       6   July  8, 2022  14:06:37
       Step Size:    0.453E-01 s, Total Time:       0.41 s
       Pressure Iterations: 2
       Maximum Velocity Error:  0.30E-01 on Mesh 1 at (20,21,2)
       Maximum Pressure Error:  0.42E+03 on Mesh 1 at (20,26,3)
       ---------------------------------------------------------------
       Max CFL number:  0.38E+00 at (15,15,3)
       Max divergence:  0.88E+01 at (20,26,3)
       Min divergence: -0.16E-01 at (40,1,40)
       Max VN number:   0.11E+00 at (15,26,3)
       Total Heat Release Rate:            594.388 kW
       Radiation Loss to Boundaries:      -208.468 kW
 
       Time Step       7   July  8, 2022  14:06:37
       Step Size:    0.499E-01 s, Total Time:       0.46 s
       Pressure Iterations: 5
       Maximum Velocity Error:  0.45E-01 on Mesh 1 at (20,26,2)
       Maximum Pressure Error:  0.15E+04 on Mesh 1 at (15,20,3)
       ---------------------------------------------------------------
       Max CFL number:  0.64E+00 at (20,26,3)
       Max divergence:  0.40E+01 at (26,15,3)
       Min divergence: -0.12E+02 at (20,15,3)
       Max VN number:   0.12E+00 at (20,15,3)
       Total Heat Release Rate:            617.611 kW
       Radiation Loss to Boundaries:      -514.885 kW
 
       Time Step       8   July  8, 2022  14:06:37
       Step Size:    0.410E-01 s, Total Time:       0.50 s
       Pressure Iterations: 6
       Maximum Velocity Error:  0.38E-01 on Mesh 1 at (20,26,1)
       Maximum Pressure Error:  0.11E+04 on Mesh 1 at (25,21,3)
       ---------------------------------------------------------------
       Max CFL number:  0.85E+00 at (20,15,3)
       Max divergence:  0.12E+02 at (20,15,3)
       Min divergence: -0.16E-01 at (40,1,40)
       Max VN number:   0.90E-01 at (20,16,3)
       Total Heat Release Rate:            736.466 kW
       Radiation Loss to Boundaries:      -321.982 kW
 
       Time Step       9   July  8, 2022  14:06:38
       Step Size:    0.410E-01 s, Total Time:       0.54 s
       Pressure Iterations: 7
       Maximum Velocity Error:  0.38E-01 on Mesh 1 at (14,21,1)
       Maximum Pressure Error:  0.12E+04 on Mesh 1 at (26,21,3)
       ---------------------------------------------------------------
       Max CFL number:  0.69E+00 at (20,15,3)
       Max divergence:  0.18E+01 at (15,15,4)
       Min divergence: -0.44E+01 at (24,26,3)
       Max VN number:   0.15E+00 at (20,15,3)
       Total Heat Release Rate:            662.776 kW
       Radiation Loss to Boundaries:      -583.535 kW
 
       Time Step      10   July  8, 2022  14:06:38
       Step Size:    0.451E-01 s, Total Time:       0.58 s
       Pressure Iterations: 4
       Maximum Velocity Error:  0.48E-01 on Mesh 1 at (26,20,2)
       Maximum Pressure Error:  0.18E+04 on Mesh 1 at (26,15,3)
       ---------------------------------------------------------------
       Max CFL number:  0.63E+00 at (24,26,3)
       Max divergence:  0.82E+01 at (24,26,3)
       Min divergence: -0.23E+00 at (16,25,3)
       Max VN number:   0.87E-01 at (24,27,3)
       Total Heat Release Rate:            576.641 kW
       Radiation Loss to Boundaries:      -241.919 kW
 
       Time Step      20   July  8, 2022  14:06:39
       Step Size:    0.299E-01 s, Total Time:       1.00 s
       Pressure Iterations: 2
       Maximum Velocity Error:  0.23E-01 on Mesh 1 at (16,20,2)
       Maximum Pressure Error:  0.16E+03 on Mesh 1 at (16,20,3)
       ---------------------------------------------------------------
       Max CFL number:  0.89E+00 at (24,24,4)
       Max divergence:  0.77E+01 at (16,19,3)
       Min divergence: -0.12E+01 at (23,24,3)
       Max VN number:   0.15E+00 at (23,15,7)
       Total Heat Release Rate:            708.538 kW
       Radiation Loss to Boundaries:      -192.914 kW
 
       Time Step      30   July  8, 2022  14:06:41
       Step Size:    0.186E-01 s, Total Time:       1.24 s
       Pressure Iterations: 1
       Maximum Velocity Error:  0.39E-01 on Mesh 1 at (20,26,2)
       Maximum Pressure Error:  0.20E+03 on Mesh 1 at (27,19,11)
       ---------------------------------------------------------------
       Max CFL number:  0.92E+00 at (22,17,6)
       Max divergence:  0.92E+01 at (21,18,6)
       Min divergence: -0.36E+01 at (19,15,8)
       Max VN number:   0.20E+00 at (25,19,7)
       Total Heat Release Rate:           1238.485 kW
       Radiation Loss to Boundaries:      -336.834 kW
 
       Time Step      40   July  8, 2022  14:06:43
       Step Size:    0.127E-01 s, Total Time:       1.40 s
       Pressure Iterations: 2
       Maximum Velocity Error:  0.22E-01 on Mesh 1 at (20,26,2)
       Maximum Pressure Error:  0.36E+03 on Mesh 1 at (22,23,3)
       ---------------------------------------------------------------
       Max CFL number:  0.91E+00 at (17,17,10)
       Max divergence:  0.86E+01 at (19,19,9)
       Min divergence: -0.43E+01 at (23,23,5)
       Max VN number:   0.25E+00 at (17,17,10)
       Total Heat Release Rate:           1282.282 kW
       Radiation Loss to Boundaries:      -312.628 kW
 
       Time Step      50   July  8, 2022  14:06:44
       Step Size:    0.127E-01 s, Total Time:       1.53 s
       Pressure Iterations: 2
       Maximum Velocity Error:  0.14E-01 on Mesh 1 at (15,23,2)
       Maximum Pressure Error:  0.87E+03 on Mesh 1 at (18,18,12)
       ---------------------------------------------------------------
       Max CFL number:  0.95E+00 at (18,18,12)
       Max divergence:  0.10E+02 at (24,21,3)
       Min divergence: -0.44E+01 at (23,23,3)
       Max VN number:   0.31E+00 at (22,17,9)
       Total Heat Release Rate:           1283.641 kW
       Radiation Loss to Boundaries:      -307.108 kW
 
       Time Step      60   July  8, 2022  14:06:46
       Step Size:    0.102E-01 s, Total Time:       1.63 s
       Pressure Iterations: 2
       Maximum Velocity Error:  0.19E-01 on Mesh 1 at (24,23,2)
       Maximum Pressure Error:  0.69E+03 on Mesh 1 at (24,23,14)
       ---------------------------------------------------------------
       Max CFL number:  0.82E+00 at (17,18,15)
       Max divergence:  0.15E+02 at (22,21,9)
       Min divergence: -0.61E+01 at (18,18,5)
       Max VN number:   0.32E+00 at (18,18,15)
       Total Heat Release Rate:           1316.620 kW
       Radiation Loss to Boundaries:      -303.635 kW
 
       Time Step      70   July  8, 2022  14:06:47
       Step Size:    0.902E-02 s, Total Time:       1.72 s
       Pressure Iterations: 1
       Maximum Velocity Error:  0.41E-01 on Mesh 1 at (15,20,2)
       Maximum Pressure Error:  0.68E+03 on Mesh 1 at (17,17,19)
       ---------------------------------------------------------------
       Max CFL number:  0.92E+00 at (17,18,16)
       Max divergence:  0.21E+02 at (20,19,11)
       Min divergence: -0.45E+01 at (23,23,5)
       Max VN number:   0.30E+00 at (22,19,10)
       Total Heat Release Rate:           1696.013 kW
       Radiation Loss to Boundaries:      -419.566 kW
 
       Time Step      80   July  8, 2022  14:06:49
       Step Size:    0.794E-02 s, Total Time:       1.81 s
       Pressure Iterations: 2
       Maximum Velocity Error:  0.20E-01 on Mesh 1 at (23,20,2)
       Maximum Pressure Error:  0.71E+03 on Mesh 1 at (21,20,14)
       ---------------------------------------------------------------
       Max CFL number:  0.86E+00 at (18,19,13)
       Max divergence:  0.33E+02 at (21,20,14)
       Min divergence: -0.51E+01 at (16,20,14)
       Max VN number:   0.30E+00 at (22,18,12)
       Total Heat Release Rate:           1767.537 kW
       Radiation Loss to Boundaries:      -437.452 kW
 
       Time Step      90   July  8, 2022  14:06:50
       Step Size:    0.874E-02 s, Total Time:       1.89 s
       Pressure Iterations: 2
       Maximum Velocity Error:  0.25E-01 on Mesh 1 at (22,17,2)
       Maximum Pressure Error:  0.14E+04 on Mesh 1 at (21,20,17)
       ---------------------------------------------------------------
       Max CFL number:  0.85E+00 at (16,19,15)
       Max divergence:  0.15E+02 at (18,22,9)
       Min divergence: -0.50E+01 at (17,16,18)
       Max VN number:   0.35E+00 at (21,20,17)
       Total Heat Release Rate:           1345.169 kW
       Radiation Loss to Boundaries:      -307.469 kW
 
       Time Step     100   July  8, 2022  14:06:52
       Step Size:    0.874E-02 s, Total Time:       1.98 s
       Pressure Iterations: 2
       Maximum Velocity Error:  0.13E-01 on Mesh 1 at (23,18,2)
       Maximum Pressure Error:  0.19E+04 on Mesh 1 at (21,19,20)
       ---------------------------------------------------------------
       Max CFL number:  0.87E+00 at (21,21,19)
       Max divergence:  0.11E+02 at (22,16,3)
       Min divergence: -0.46E+01 at (21,20,19)
       Max VN number:   0.28E+00 at (21,20,20)
       Total Heat Release Rate:           1205.169 kW
       Radiation Loss to Boundaries:      -279.306 kW
 
       Time Step     200   July  8, 2022  14:07:06
       Step Size:    0.532E-02 s, Total Time:       2.60 s
       Pressure Iterations: 2
       Maximum Velocity Error:  0.33E-01 on Mesh 1 at (16,21,2)
       Maximum Pressure Error:  0.19E+04 on Mesh 1 at (16,21,3)
       ---------------------------------------------------------------
       Max CFL number:  0.83E+00 at (19,22,34)
       Max divergence:  0.15E+02 at (16,21,3)
       Min divergence: -0.41E+01 at (20,22,35)
       Max VN number:   0.47E+00 at (22,25,40)
       Total Heat Release Rate:           1591.784 kW
       Radiation Loss to Boundaries:      -393.862 kW
 
       Time Step     300   July  8, 2022  14:07:22
       Step Size:    0.569E-02 s, Total Time:       3.16 s
       Pressure Iterations: 1
       Maximum Velocity Error:  0.44E-01 on Mesh 1 at (18,21,2)
       Maximum Pressure Error:  0.19E+04 on Mesh 1 at (19,21,23)
       ---------------------------------------------------------------
       Max CFL number:  0.86E+00 at (19,21,22)
       Max divergence:  0.14E+02 at (20,21,26)
       Min divergence: -0.44E+01 at (22,33,39)
       Max VN number:   0.50E+00 at (39,33,40)
       Total Heat Release Rate:           1648.478 kW
       Radiation Loss to Boundaries:      -408.679 kW
 
       Time Step     400   July  8, 2022  14:07:36
       Step Size:    0.727E-02 s, Total Time:       3.74 s
       Pressure Iterations: 3
       Maximum Velocity Error:  0.12E-01 on Mesh 1 at (16,22,2)
       Maximum Pressure Error:  0.19E+04 on Mesh 1 at (16,22,3)
       ---------------------------------------------------------------
       Max CFL number:  0.97E+00 at (22,21,33)
       Max divergence:  0.19E+02 at (16,22,3)
       Min divergence: -0.53E+01 at (23,20,26)
       Max VN number:   0.62E+00 at (1,39,26)
       Total Heat Release Rate:           1468.527 kW
       Radiation Loss to Boundaries:      -370.204 kW
 
       Time Step     500   July  8, 2022  14:07:49
       Step Size:    0.679E-02 s, Total Time:       4.31 s
       Pressure Iterations: 2
       Maximum Velocity Error:  0.23E-01 on Mesh 1 at (20,15,2)
       Maximum Pressure Error:  0.15E+04 on Mesh 1 at (24,1,40)
       ---------------------------------------------------------------
       Max CFL number:  0.85E+00 at (19,21,24)
       Max divergence:  0.12E+02 at (20,16,3)
       Min divergence: -0.38E+01 at (18,23,4)
       Max VN number:   0.68E+00 at (19,2,40)
       Total Heat Release Rate:           1570.317 kW
       Radiation Loss to Boundaries:      -410.445 kW
 
       Time Step     600   July  8, 2022  14:08:04
       Step Size:    0.651E-02 s, Total Time:       4.96 s
       Pressure Iterations: 2
       Maximum Velocity Error:  0.11E-01 on Mesh 1 at (20,25,2)
       Maximum Pressure Error:  0.11E+04 on Mesh 1 at (21,19,22)
       ---------------------------------------------------------------
       Max CFL number:  0.95E+00 at (20,19,23)
       Max divergence:  0.12E+02 at (19,21,5)
       Min divergence: -0.40E+01 at (19,16,26)
       Max VN number:   0.38E+00 at (3,40,35)
       Total Heat Release Rate:           1409.650 kW
       Radiation Loss to Boundaries:      -357.739 kW
 
       Time Step     700   July  8, 2022  14:08:18
       Step Size:    0.671E-02 s, Total Time:       5.64 s
       Pressure Iterations: 2
       Maximum Velocity Error:  0.43E-01 on Mesh 1 at (21,25,2)
       Maximum Pressure Error:  0.15E+04 on Mesh 1 at (21,25,3)
       ---------------------------------------------------------------
       Max CFL number:  0.86E+00 at (19,25,33)
       Max divergence:  0.11E+02 at (21,25,3)
       Min divergence: -0.30E+01 at (23,18,13)
       Max VN number:   0.47E+00 at (18,38,40)
       Total Heat Release Rate:           1629.225 kW
       Radiation Loss to Boundaries:      -421.989 kW
 
       Time Step     800   July  8, 2022  14:08:32
       Step Size:    0.620E-02 s, Total Time:       6.32 s
       Pressure Iterations: 2
       Maximum Velocity Error:  0.49E-01 on Mesh 1 at (25,23,2)
       Maximum Pressure Error:  0.17E+04 on Mesh 1 at (25,23,3)
       ---------------------------------------------------------------
       Max CFL number:  0.91E+00 at (23,22,31)
       Max divergence:  0.13E+02 at (20,21,10)
       Min divergence: -0.32E+01 at (20,23,31)
       Max VN number:   0.42E+00 at (36,40,32)
       Total Heat Release Rate:           1690.577 kW
       Radiation Loss to Boundaries:      -427.479 kW
 
       Time Step     900   July  8, 2022  14:08:49
       Step Size:    0.705E-02 s, Total Time:       7.04 s
       Pressure Iterations: 1
       Maximum Velocity Error:  0.29E-01 on Mesh 1 at (23,22,2)
       Maximum Pressure Error:  0.94E+03 on Mesh 1 at (19,22,26)
       ---------------------------------------------------------------
       Max CFL number:  0.89E+00 at (19,22,25)
       Max divergence:  0.11E+02 at (19,20,4)
       Min divergence: -0.30E+01 at (20,23,21)
       Max VN number:   0.45E+00 at (5,39,40)
       Total Heat Release Rate:           1521.980 kW
       Radiation Loss to Boundaries:      -400.633 kW
 
       Time Step    1000   July  8, 2022  14:09:02
       Step Size:    0.755E-02 s, Total Time:       7.76 s
       Pressure Iterations: 1
       Maximum Velocity Error:  0.24E-01 on Mesh 1 at (22,17,2)
       Maximum Pressure Error:  0.72E+03 on Mesh 1 at (1,35,40)
       ---------------------------------------------------------------
       Max CFL number:  0.83E+00 at (25,21,33)
       Max divergence:  0.92E+01 at (21,21,10)
       Min divergence: -0.36E+01 at (19,23,22)
       Max VN number:   0.43E+00 at (2,25,40)
       Total Heat Release Rate:           1579.339 kW
       Radiation Loss to Boundaries:      -435.228 kW
 
       Time Step    1100   July  8, 2022  14:09:18
       Step Size:    0.866E-02 s, Total Time:       8.51 s
       Pressure Iterations: 2
       Maximum Velocity Error:  0.13E-01 on Mesh 1 at (26,24,2)
       Maximum Pressure Error:  0.14E+04 on Mesh 1 at (24,26,40)
       ---------------------------------------------------------------
       Max CFL number:  0.87E+00 at (24,21,24)
       Max divergence:  0.10E+02 at (21,20,22)
       Min divergence: -0.39E+01 at (22,19,23)
       Max VN number:   0.70E+00 at (36,40,27)
       Total Heat Release Rate:           1395.955 kW
       Radiation Loss to Boundaries:      -392.959 kW
 
       Time Step    1200   July  8, 2022  14:09:33
       Step Size:    0.733E-02 s, Total Time:       9.31 s
       Pressure Iterations: 3
       Maximum Velocity Error:  0.39E-01 on Mesh 1 at (25,20,2)
       Maximum Pressure Error:  0.11E+04 on Mesh 1 at (25,20,3)
       ---------------------------------------------------------------
       Max CFL number:  0.92E+00 at (19,23,31)
       Max divergence:  0.15E+02 at (25,20,3)
       Min divergence: -0.41E+01 at (19,23,31)
       Max VN number:   0.45E+00 at (16,23,40)
       Total Heat Release Rate:           1666.748 kW
       Radiation Loss to Boundaries:      -459.485 kW
 
       Time Step    1300   July  8, 2022  14:09:47
       Step Size:    0.764E-02 s, Total Time:      10.05 s
       Pressure Iterations: 2
       Maximum Velocity Error:  0.38E-01 on Mesh 1 at (21,15,2)
       Maximum Pressure Error:  0.80E+03 on Mesh 1 at (22,18,29)
       ---------------------------------------------------------------
       Max CFL number:  0.90E+00 at (23,19,27)
       Max divergence:  0.11E+02 at (21,15,3)
       Min divergence: -0.36E+01 at (18,19,3)
       Max VN number:   0.47E+00 at (18,26,40)
       Total Heat Release Rate:           1390.338 kW
       Radiation Loss to Boundaries:      -405.930 kW
 
       Time Step    1400   July  8, 2022  14:10:01
       Step Size:    0.818E-02 s, Total Time:      10.80 s
       Pressure Iterations: 2
       Maximum Velocity Error:  0.19E-01 on Mesh 1 at (15,23,2)
       Maximum Pressure Error:  0.90E+03 on Mesh 1 at (15,18,40)
       ---------------------------------------------------------------
       Max CFL number:  0.82E+00 at (16,20,38)
       Max divergence:  0.77E+01 at (20,19,16)
       Min divergence: -0.25E+01 at (23,17,18)
       Max VN number:   0.50E+00 at (11,20,40)
       Total Heat Release Rate:           1520.269 kW
       Radiation Loss to Boundaries:      -469.863 kW
 
       Time Step    1500   July  8, 2022  14:10:17
       Step Size:    0.892E-02 s, Total Time:      11.55 s
       Pressure Iterations: 1
       Maximum Velocity Error:  0.19E-01 on Mesh 1 at (26,18,2)
       Maximum Pressure Error:  0.72E+03 on Mesh 1 at (27,15,40)
       ---------------------------------------------------------------
       Max CFL number:  0.89E+00 at (21,20,32)
       Max divergence:  0.11E+02 at (21,25,3)
       Min divergence: -0.30E+01 at (21,22,5)
       Max VN number:   0.64E+00 at (22,21,40)
       Total Heat Release Rate:           1444.688 kW
       Radiation Loss to Boundaries:      -462.554 kW
 
       Time Step    1600   July  8, 2022  14:10:31
       Step Size:    0.848E-02 s, Total Time:      12.38 s
       Pressure Iterations: 1
       Maximum Velocity Error:  0.25E-01 on Mesh 1 at (19,15,2)
       Maximum Pressure Error:  0.47E+03 on Mesh 1 at (22,22,25)
       ---------------------------------------------------------------
       Max CFL number:  0.90E+00 at (21,16,32)
       Max divergence:  0.75E+01 at (16,23,3)
       Min divergence: -0.23E+01 at (16,24,7)
       Max VN number:   0.46E+00 at (1,5,29)
       Total Heat Release Rate:           1594.116 kW
       Radiation Loss to Boundaries:      -493.730 kW
 
       Time Step    1700   July  8, 2022  14:10:47
       Step Size:    0.867E-02 s, Total Time:      13.22 s
       Pressure Iterations: 2
       Maximum Velocity Error:  0.38E-01 on Mesh 1 at (24,20,2)
       Maximum Pressure Error:  0.14E+04 on Mesh 1 at (24,20,3)
       ---------------------------------------------------------------
       Max CFL number:  0.94E+00 at (21,16,23)
       Max divergence:  0.91E+01 at (24,19,3)
       Min divergence: -0.19E+01 at (21,16,22)
       Max VN number:   0.46E+00 at (33,1,21)
       Total Heat Release Rate:           1630.784 kW
       Radiation Loss to Boundaries:      -529.498 kW
 
       Time Step    1800   July  8, 2022  14:11:02
       Step Size:    0.883E-02 s, Total Time:      14.06 s
       Pressure Iterations: 2
       Maximum Velocity Error:  0.21E-01 on Mesh 1 at (17,20,2)
       Maximum Pressure Error:  0.45E+03 on Mesh 1 at (23,21,22)
       ---------------------------------------------------------------
       Max CFL number:  0.85E+00 at (23,21,22)
       Max divergence:  0.89E+01 at (21,17,3)
       Min divergence: -0.23E+01 at (22,21,22)
       Max VN number:   0.50E+00 at (2,2,40)
       Total Heat Release Rate:           1576.163 kW
       Radiation Loss to Boundaries:      -523.462 kW
 
       Time Step    1900   July  8, 2022  14:11:17
       Step Size:    0.925E-02 s, Total Time:      14.90 s
       Pressure Iterations: 1
       Maximum Velocity Error:  0.33E-01 on Mesh 1 at (19,19,2)
       Maximum Pressure Error:  0.70E+03 on Mesh 1 at (18,17,40)
       ---------------------------------------------------------------
       Max CFL number:  0.94E+00 at (20,19,26)
       Max divergence:  0.68E+01 at (20,22,11)
       Min divergence: -0.41E+01 at (20,17,17)
       Max VN number:   0.57E+00 at (27,33,40)
       Total Heat Release Rate:           1540.151 kW
       Radiation Loss to Boundaries:      -534.840 kW
 
       Time Step    2000   July  8, 2022  14:11:34
       Step Size:    0.989E-02 s, Total Time:      15.79 s
       Pressure Iterations: 1
       Maximum Velocity Error:  0.34E-01 on Mesh 1 at (19,20,2)
       Maximum Pressure Error:  0.58E+03 on Mesh 1 at (22,19,16)
       ---------------------------------------------------------------
       Max CFL number:  0.91E+00 at (19,21,26)
       Max divergence:  0.64E+01 at (21,16,3)
       Min divergence: -0.18E+01 at (20,16,20)
       Max VN number:   0.56E+00 at (1,3,33)
       Total Heat Release Rate:           1553.699 kW
       Radiation Loss to Boundaries:      -552.719 kW
 
       Time Step    2100   July  8, 2022  14:11:48
       Step Size:    0.825E-02 s, Total Time:      16.72 s
       Pressure Iterations: 1
       Maximum Velocity Error:  0.38E-01 on Mesh 1 at (20,23,2)
       Maximum Pressure Error:  0.37E+03 on Mesh 1 at (19,18,33)
       ---------------------------------------------------------------
       Max CFL number:  0.82E+00 at (19,18,31)
       Max divergence:  0.77E+01 at (17,22,3)
       Min divergence: -0.29E+01 at (23,18,3)
       Max VN number:   0.45E+00 at (22,39,40)
       Total Heat Release Rate:           1407.237 kW
       Radiation Loss to Boundaries:      -532.941 kW
 
       Time Step    2200   July  8, 2022  14:12:03
       Step Size:    0.999E-02 s, Total Time:      17.64 s
       Pressure Iterations: 1
       Maximum Velocity Error:  0.35E-01 on Mesh 1 at (24,19,2)
       Maximum Pressure Error:  0.52E+03 on Mesh 1 at (24,21,19)
       ---------------------------------------------------------------
       Max CFL number:  0.99E+00 at (20,20,18)
       Max divergence:  0.99E+01 at (24,23,3)
       Min divergence: -0.42E+01 at (24,21,19)
       Max VN number:   0.61E+00 at (2,22,40)
       Total Heat Release Rate:           1584.287 kW
       Radiation Loss to Boundaries:      -617.175 kW
 
       Time Step    2300   July  8, 2022  14:12:17
       Step Size:    0.918E-02 s, Total Time:      18.54 s
       Pressure Iterations: 1
       Maximum Velocity Error:  0.19E-01 on Mesh 1 at (24,21,2)
       Maximum Pressure Error:  0.64E+03 on Mesh 1 at (19,21,24)
       ---------------------------------------------------------------
       Max CFL number:  0.89E+00 at (20,19,26)
       Max divergence:  0.67E+01 at (24,22,3)
       Min divergence: -0.20E+01 at (19,21,25)
       Max VN number:   0.50E+00 at (39,34,40)
       Total Heat Release Rate:           1504.181 kW
       Radiation Loss to Boundaries:      -593.618 kW
 
       Time Step    2400   July  8, 2022  14:12:31
       Step Size:    0.864E-02 s, Total Time:      19.45 s
       Pressure Iterations: 1
       Maximum Velocity Error:  0.20E-01 on Mesh 1 at (18,20,2)
       Maximum Pressure Error:  0.66E+03 on Mesh 1 at (20,24,19)
       ---------------------------------------------------------------
       Max CFL number:  0.91E+00 at (22,18,37)
       Max divergence:  0.99E+01 at (25,22,3)
       Min divergence: -0.33E+01 at (19,21,28)
       Max VN number:   0.43E+00 at (24,18,40)
       Total Heat Release Rate:           1530.046 kW
       Radiation Loss to Boundaries:      -623.441 kW
 
       Time Step    2500   July  8, 2022  14:12:46
       Step Size:    0.817E-02 s, Total Time:      20.32 s
       Pressure Iterations: 2
       Maximum Velocity Error:  0.17E-01 on Mesh 1 at (21,24,2)
       Maximum Pressure Error:  0.40E+03 on Mesh 1 at (18,21,30)
       ---------------------------------------------------------------
       Max CFL number:  0.91E+00 at (18,21,28)
       Max divergence:  0.68E+01 at (21,24,3)
       Min divergence: -0.20E+01 at (18,21,29)
       Max VN number:   0.41E+00 at (19,39,40)
       Total Heat Release Rate:           1508.504 kW
       Radiation Loss to Boundaries:      -627.490 kW
 
       Time Step    2600   July  8, 2022  14:13:01
       Step Size:    0.775E-02 s, Total Time:      21.21 s
       Pressure Iterations: 1
       Maximum Velocity Error:  0.22E-01 on Mesh 1 at (21,19,2)
       Maximum Pressure Error:  0.45E+03 on Mesh 1 at (20,25,36)
       ---------------------------------------------------------------
       Max CFL number:  0.89E+00 at (20,21,29)
       Max divergence:  0.88E+01 at (19,25,3)
       Min divergence: -0.22E+01 at (20,24,37)
       Max VN number:   0.48E+00 at (39,5,40)
       Total Heat Release Rate:           1435.949 kW
       Radiation Loss to Boundaries:      -644.505 kW
 
       Time Step    2700   July  8, 2022  14:13:17
       Step Size:    0.102E-01 s, Total Time:      22.15 s
       Pressure Iterations: 1
       Maximum Velocity Error:  0.25E-01 on Mesh 1 at (25,24,2)
       Maximum Pressure Error:  0.50E+03 on Mesh 1 at (25,18,40)
       ---------------------------------------------------------------
       Max CFL number:  0.90E+00 at (21,25,32)
       Max divergence:  0.59E+01 at (16,25,3)
       Min divergence: -0.19E+01 at (22,21,3)
       Max VN number:   0.46E+00 at (7,40,29)
       Total Heat Release Rate:           1577.356 kW
       Radiation Loss to Boundaries:      -707.766 kW
 
       Time Step    2800   July  8, 2022  14:13:30
       Step Size:    0.884E-02 s, Total Time:      23.07 s
       Pressure Iterations: 1
       Maximum Velocity Error:  0.21E-01 on Mesh 1 at (21,23,2)
       Maximum Pressure Error:  0.59E+03 on Mesh 1 at (22,22,33)
       ---------------------------------------------------------------
       Max CFL number:  0.99E+00 at (23,21,28)
       Max divergence:  0.72E+01 at (21,16,3)
       Min divergence: -0.24E+01 at (25,16,9)
       Max VN number:   0.61E+00 at (39,30,40)
       Total Heat Release Rate:           1439.991 kW
       Radiation Loss to Boundaries:      -685.235 kW
 
       Time Step    2900   July  8, 2022  14:13:42
       Step Size:    0.846E-02 s, Total Time:      24.00 s
       Pressure Iterations: 1
       Maximum Velocity Error:  0.12E-01 on Mesh 1 at (18,22,2)
       Maximum Pressure Error:  0.38E+03 on Mesh 1 at (28,40,40)
       ---------------------------------------------------------------
       Max CFL number:  0.93E+00 at (20,20,23)
       Max divergence:  0.60E+01 at (16,24,3)
       Min divergence: -0.21E+01 at (26,21,37)
       Max VN number:   0.37E+00 at (40,2,29)
       Total Heat Release Rate:           1402.058 kW
       Radiation Loss to Boundaries:      -674.101 kW
 
       Time Step    3000   July  8, 2022  14:13:54
       Step Size:    0.901E-02 s, Total Time:      24.90 s
       Pressure Iterations: 1
       Maximum Velocity Error:  0.36E-01 on Mesh 1 at (22,21,2)
       Maximum Pressure Error:  0.69E+03 on Mesh 1 at (26,20,40)
       ---------------------------------------------------------------
       Max CFL number:  0.88E+00 at (22,21,32)
       Max divergence:  0.71E+01 at (20,19,9)
       Min divergence: -0.20E+01 at (22,18,34)
       Max VN number:   0.43E+00 at (38,9,40)
       Total Heat Release Rate:           1525.280 kW
       Radiation Loss to Boundaries:      -740.437 kW
 
       Time Step    3100   July  8, 2022  14:14:07
       Step Size:    0.962E-02 s, Total Time:      25.81 s
       Pressure Iterations: 1
       Maximum Velocity Error:  0.16E-01 on Mesh 1 at (22,24,2)
       Maximum Pressure Error:  0.50E+03 on Mesh 1 at (20,20,40)
       ---------------------------------------------------------------
       Max CFL number:  0.89E+00 at (18,21,30)
       Max divergence:  0.68E+01 at (24,19,3)
       Min divergence: -0.26E+01 at (23,20,3)
       Max VN number:   0.43E+00 at (38,1,28)
       Total Heat Release Rate:           1544.168 kW
       Radiation Loss to Boundaries:      -796.041 kW
 
       Time Step    3200   July  8, 2022  14:14:19
       Step Size:    0.926E-02 s, Total Time:      26.73 s
       Pressure Iterations: 1
       Maximum Velocity Error:  0.48E-02 on Mesh 1 at (24,18,2)
       Maximum Pressure Error:  0.42E+03 on Mesh 1 at (19,12,40)
       ---------------------------------------------------------------
       Max CFL number:  0.92E+00 at (17,22,27)
       Max divergence:  0.63E+01 at (15,20,3)
       Min divergence: -0.24E+01 at (20,17,20)
       Max VN number:   0.51E+00 at (1,26,25)
       Total Heat Release Rate:           1567.622 kW
       Radiation Loss to Boundaries:      -774.993 kW
 
       Time Step    3300   July  8, 2022  14:14:30
       Step Size:    0.891E-02 s, Total Time:      27.70 s
       Pressure Iterations: 1
       Maximum Velocity Error:  0.44E-01 on Mesh 1 at (20,16,2)
       Maximum Pressure Error:  0.46E+03 on Mesh 1 at (20,23,36)
       ---------------------------------------------------------------
       Max CFL number:  0.95E+00 at (20,21,31)
       Max divergence:  0.72E+01 at (21,16,3)
       Min divergence: -0.20E+01 at (16,22,35)
       Max VN number:   0.38E+00 at (40,25,34)
       Total Heat Release Rate:           1483.746 kW
       Radiation Loss to Boundaries:      -772.031 kW
 
       Time Step    3400   July  8, 2022  14:14:40
       Step Size:    0.987E-02 s, Total Time:      28.63 s
       Pressure Iterations: 1
       Maximum Velocity Error:  0.31E-01 on Mesh 1 at (20,19,2)
       Maximum Pressure Error:  0.40E+03 on Mesh 1 at (18,22,40)
       ---------------------------------------------------------------
       Max CFL number:  0.96E+00 at (22,21,32)
       Max divergence:  0.65E+01 at (24,19,3)
       Min divergence: -0.16E+01 at (23,19,17)
       Max VN number:   0.46E+00 at (16,8,40)
       Total Heat Release Rate:           1484.986 kW
       Radiation Loss to Boundaries:      -791.958 kW
 
       Time Step    3500   July  8, 2022  14:14:51
       Step Size:    0.844E-02 s, Total Time:      29.60 s
       Pressure Iterations: 1
       Maximum Velocity Error:  0.11E-01 on Mesh 1 at (20,23,2)
       Maximum Pressure Error:  0.33E+03 on Mesh 1 at (20,18,19)
       ---------------------------------------------------------------
       Max CFL number:  0.89E+00 at (20,20,29)
       Max divergence:  0.61E+01 at (21,16,3)
       Min divergence: -0.22E+01 at (17,19,34)
       Max VN number:   0.39E+00 at (15,1,29)
       Total Heat Release Rate:           1445.761 kW
       Radiation Loss to Boundaries:      -800.962 kW
 
       Time Step    3545   July  8, 2022  14:14:55
       Step Size:    0.411E-02 s, Total Time:      30.00 s
       Pressure Iterations: 1
       Maximum Velocity Error:  0.21E-01 on Mesh 1 at (22,22,2)
       Maximum Pressure Error:  0.57E+03 on Mesh 1 at (25,19,3)
       ---------------------------------------------------------------
       Max CFL number:  0.38E+00 at (19,23,34)
       Max divergence:  0.56E+01 at (26,18,3)
       Min divergence: -0.16E+01 at (20,21,27)
       Max VN number:   0.21E+00 at (14,8,40)
       Total Heat Release Rate:           1543.095 kW
       Radiation Loss to Boundaries:      -864.481 kW
 


 Time Stepping Wall Clock Time (s):      499.856
 Total Elapsed Wall Clock Time (s):      502.083

STOP: FDS completed successfully (CHID: hrrpua_1500)
